project/cases/beerten/variants/case5_vsc_mtdc_beerten_paper_controls_cap_explicit.m
function mpc = case5_vsc_mtdc_beerten_paper_controls_cap_explicit
% case5_vsc_mtdc_beerten_paper_controls_cap_explicit - Explicit Beerten case
% with paper VSC modes, PSS/E controls and VSC capability metadata.
%
% This case keeps the original Beerten converter control modes used by
% CASE5_VSC_MTDC_BEERTEN:
%   VSC 1 at AC bus 2: PQ converter on the AC side.
%   VSC 2 at AC bus 3: AC-voltage converter, with DC-voltage reference.
%   VSC 3 at AC bus 5: PQ converter on the AC side.
%
% It also includes the PSS/E-style AC-side controls from
% CASE5_VSC_MTDC_BEERTEN_ULTC_SWSHUNT:
%   - a two-winding ULTC for the load-side auxiliary bus 7;
%   - a discrete switched shunt at bus 5.
%
% VSC capability is represented as TESIS-style PF/CPF saturation metadata in
% MPC.VSC_CAPABILITY. It is not an OPF constraint. Activate enforcement with:
%
%   mpopt = mpoption('out.all', 0, 'verbose', 0);
%   mpopt.vsc_mtdc.method = 'unified';
%   mpopt.vsc_mtdc.capability_enforce = 1;
%
% See also case5_vsc_mtdc_beerten_paper_controls_cap_target_explicit,
% runpf_psse, runcpf_psse, check_vsc_capability.

%   MATPOWER

%%-----  User configuration and option legend  -----%%
opt = struct();
opt.profile = 'beerten_paper_modes_with_psse_controls_and_capability';
opt.baseMVA = 100;
opt.recommended_pf_method = 'unified';
opt.recommended_cpf_method = 'unified';
opt.enable_psse_ultc = 1;
opt.enable_psse_switched_shunt = 1;
opt.enable_vsc_capability_enforcement = 1;
opt.vsc_capability = struct( ...
    'Snom',       [150 150 150], ...
    'VconvMax',   [1.15 1.15 1.15], ...
    'projection', {{'radial', 'preservar_p', 'radial'}} );
opt.gen_capability = struct( ...
    'Snom',       [500 200], ...
    'type',       {{'thermal', 'thermal'}} );
opt.cpf_policies = struct();
opt.cpf_policies.lambda_definition = 'relative_load_increase';
opt.cpf_policies.load = struct( ...
    'policy',                 'proportional_relative_increase', ...
    'load_increment_scale',   1.00, ...
    'formula',                'P(lambda)=P0*(1+lambda), Q(lambda)=Q0*(1+lambda)' );
opt.cpf_policies.gen = struct( ...
    'policy',      'participation', ...
    'gen_buses',   2, ...
    'weights',     1, ...
    'load_share',  0.50, ...
    'saturation',  'freeze' );
opt.cpf_policies.hvdc = struct( ...
    'policy',          'pac_pair_transfer', ...
    'criterion',       'relieve_ac_branch_2_5_by_counterflow', ...
    'relieved_branch', [2 5], ...
    'source_bus',      2, ...
    'sink_bus',        5, ...
    'gain_mw_per_mw_load', 10 / (0.10 * 165), ...
    'qac_buses',       [2; 5], ...
    'qac_gain_mvar_per_mw_load', [-5; 3] / (0.10 * 165), ...
    'vsc_derating',    struct( ...
        'enabled',                     1, ...
        'monitor_converters',          [1; 2; 3], ...
        'start_utilization',           0.95, ...
        'target_utilization',          0.93, ...
        'backoff_lambda_per_step',     0.002, ...
        'min_transfer_scale',          0.00), ...
    'saturation',      'freeze' );
opt.cpf_policies.vsc_capability = struct( ...
    'saturation_margin_fraction',     0.05, ...
    'saturation_margin_step_fraction', 0.005, ...
    'saturation_margin_max_fraction',  1.0 );
opt.cpf_policies.vsc_slack_q_relief = struct( ...
    'policy',                  'dc_slack_ac_q_saturate', ...
    'converter_idx',           2, ...
    'max_saturations',         80, ...
    'saturation',              'freeze' );
opt.ac_modes = struct( ...
    'VSC_AC_Q', 1, ...
    'VSC_AC_V', 2, ...
    'VSC_AC_PQ', 3, ...
    'VSC_AC_PV', 4 );
opt.dc_modes = struct( ...
    'VSC_DC_VDC', 1, ...
    'VSC_DC_PDC', 2, ...
    'VSC_DC_DROOP', 3 );
opt.psse_solver = struct('ACTAPS', 1, 'SWSHNT', 1, ...
    'MXTPSS', 10, 'VCTOLV', 1e-5);

%% MATPOWER Case Format : Version 2
mpc.version = '2';
mpc.explicit_options = opt;
mpc.cpf_policies = opt.cpf_policies;

%%-----  Power Flow Data  -----%%
%% system MVA base
mpc.baseMVA = opt.baseMVA;

%% bus data
% bus_i type Pd Qd Gs Bs area Vm Va baseKV zone Vmax Vmin
% Bus 7 carries the original bus-4 load behind the PSS/E ULTC branch 4-7.
mpc.bus = [
    1   3     0    0   0   0   1   1.060   0   230    1   1.1   0.9;
    2   2    20   10   0   0   1   1.000   0   230    1   1.1   0.9;
    3   1    45   15   0   0   1   1.000   0   230    1   1.1   0.9;
    4   1     0    0   0   0   1   1.000   0   230    1   1.1   0.9;
    5   1    60   10   0   0   1   1.000   0   230    1   1.1   0.9;
    7   1    40    5   0   0   1   1.000   0   230    1   1.1   0.9;
];

%% generator data
% bus Pg Qg Qmax Qmin Vg mBase status Pmax Pmin Pc1 Pc2 Qc1min Qc1max
% Qc2min Qc2max ramp_agc ramp_10 ramp_30 ramp_q apf
mpc.gen = [
    1    0   0   500  -500   1.060   100   1   500  -500   0 0 0 0 0 0 0 0 0 0 0;
    2   40   0   300  -300   1.000   100   1   300     0   0 0 0 0 0 0 0 0 0 0 0;
];

%% branch data
% fbus tbus r x b rateA rateB rateC ratio angle status angmin angmax
mpc.branch = [
    1   2   0.020   0.060   0.060   250 250 250   0   0   1  -360 360;
    1   3   0.080   0.240   0.050   250 250 250   0   0   1  -360 360;
    2   3   0.060   0.180   0.040   250 250 250   0   0   1  -360 360;
    2   4   0.060   0.180   0.040   250 250 250   0   0   1  -360 360;
    2   5   0.040   0.120   0.030   250 250 250   0   0   1  -360 360;
    3   4   0.010   0.030   0.020   250 250 250   0   0   1  -360 360;
    4   5   0.080   0.240   0.050   250 250 250   0   0   1  -360 360;
    4   7   0.005   0.050   0.000   250 250 250   1   0   1  -360 360;
];

%%-----  VSC-MTDC Data  -----%%
%% DC bus data
% busdc_i status Vdc baseKVdc
mpc.busdc = [
    2   1   1.008   300;
    3   1   1.000   300;
    5   1   0.998   300;
];

%% DC branch data
% fbusdc tbusdc r status
mpc.branchdc = [
    2   3   0.02633   1;
    3   5   0.02337   1;
    2   5   0.03601   1;
];

%% VSC data
% acbus busdc status ac_mode dc_mode Pac Qac VacPCC Pdc Vdc Kdroop
% lossA lossB lossC tr_r tr_x tr_b tr_shift tr_rateA tr_rateB tr_rateC
% filter_g filter_b reactor_r reactor_x reactor_b
% reactor_rateA reactor_rateB reactor_rateC
mpc.vsc = [
    2 2 1 3 2  -60.00 -40.00 0.984  58.59 1.008 0 1.1033 0.1999949 0.1466667 0 0.0001 0 0 150 150 150 0 0 0.0009615 0.0399 0 150 150 150;
    3 3 1 2 1   20.68   7.17 1.000 -21.84 1.000 0 1.1033 0.1999949 0.2222333 0 0.0001 0 0 150 150 150 0 0 0.0000000 0.0392 0 150 150 150;
    5 5 1 3 2   35.00   5.00 0.993 -36.21 0.998 0 1.1033 0.1999949 0.2222333 0 0.0001 0 0 150 150 150 0 0 0.0007850 0.0399 0 150 150 150;
];

%%-----  VSC Capability Metadata  -----%%
% These limits keep the base point inside the curve. The companion CPF
% direction is large enough for the TESIS-style saturation layer to act while
% tracing the PV curve.
mpc.vsc_capability.Snom = opt.vsc_capability.Snom;
mpc.vsc_capability.VconvMax = opt.vsc_capability.VconvMax;
mpc.vsc_capability.projection_mode = opt.vsc_capability.projection;

%%-----  Generator Capability Metadata  -----%%
% Slack generators are audited but exempt from saturation. The non-slack
% generator at bus 2 uses this metadata when capability enforcement is active.
mpc.gen_capability.Snom = opt.gen_capability.Snom;
mpc.gen_capability.type = opt.gen_capability.type;

%%-----  PSS/E Control Metadata  -----%%
mpc = add_explicit_psse_controls(mpc, opt);


function mpc = add_explicit_psse_controls(mpc, opt)
mpc.psse.rev = 34;
mpc.psse.system.solver.ACTAPS = opt.psse_solver.ACTAPS;
mpc.psse.system.solver.SWSHNT = opt.psse_solver.SWSHNT;
mpc.psse.system.adjust.MXTPSS = opt.psse_solver.MXTPSS;
mpc.psse.system.newton.VCTOLV = opt.psse_solver.VCTOLV;

xf_cols = {'I', 'J', 'K', 'CKT', 'CW', 'CZ', 'CM', 'MAG1', ...
    'MAG2', 'NMETR', 'NAME', 'STAT', 'O1', 'F1', 'O2', 'F2', ...
    'O3', 'F3', 'O4', 'F4', 'R1_2', 'X1_2', 'SBASE1_2', ...
    'WINDV1', 'NOMV1', 'ANG1', ...
    'RATE11', 'RATE21', 'RATE31', 'RATE41', 'RATE51', 'RATE61', ...
    'RATE71', 'RATE81', 'RATE91', 'RATE101', 'RATE111', 'RATE121', ...
    'COD1', 'CONT1', 'RMA1', 'RMI1', 'VMA1', 'VMI1', ...
    'NTP1', 'TAB1', 'CR1', 'CX1', 'CNXA1', 'NOD1', 'WINDV2', 'NOMV2'};
xf_col = struct();
for k = 1:length(xf_cols)
    xf_col.(lower(regexprep(xf_cols{k}, '[^A-Za-z0-9_]', '_'))) = k;
end
xf_num = nan(1, 52);
xf_num([1 2 3 5 6 7 12 21 22 23 24 25 26 27:38 39 40 ...
        41 42 43 44 45 46 47 48 49 50 51 52]) = ...
    [4 7 0 1 1 1 1 ...
        0.005 0.05 100 1.00 0 0 ...
        250 * ones(1, 12) 1 7 1.10 0.90 1.03 0.95 ...
        9 0 0 0 0 0 1 0];
mpc.psse.xfmr.two = struct( ...
    'colnames', {xf_cols}, ...
    'num', xf_num, ...
    'txt', {cell(1, 52)}, ...
    'branch_idx', 8, ...
    'col', xf_col );
mpc.psse.xfmr.three = struct( ...
    'colnames', {{}}, ...
    'num', zeros(0, 112), ...
    'txt', {cell(0, 112)}, ...
    'branch_idx', zeros(0, 3), ...
    'col', struct() );

sw_cols = {'I', 'MODSW', 'ADJM', 'STAT', 'VSWHI', 'VSWLO', ...
    'SWREG', 'RMPCT', 'RMIDNT', 'BINIT', ...
    'N1', 'B1', 'N2', 'B2', 'N3', 'B3', 'N4', 'B4', ...
    'N5', 'B5', 'N6', 'B6', 'N7', 'B7', 'N8', 'B8', 'NREG'};
sw_num = nan(1, 27);
sw_num([1:8 10:12 27]) = [5 1 0 1 1.03 0.95 5 100 0 3 5 0];
mpc.psse.swshunt = struct( ...
    'colnames', {sw_cols}, ...
    'num', sw_num, ...
    'txt', {cell(1, 27)}, ...
    'binit_col', 10, ...
    'status_col', 4 );
